%   A = 
%              Theta   U,w(1)   U,w(2)        q
%    Theta         0        0        0        1
%    U,w(1)   -9.797        0        0   -1.307
%    U,w(2)  -0.5134        0        0    24.93
%    q             0        0        0        0
A = [   0        0        0        1
    -9.772        0   0.3323   -1.308
    -0.8573  -0.3323        0    24.97
    0        0        0        0];
     % d_ca  V40AeroDynam
B =     [0             0
        -0.009639       0.02326
        -0.02856             0
        0.2563             0];
C = [1       0       0       0
       0       0       0       1
       0       1       0       0
     0       0       1       0];
 D = zeros(size(C,1),2);
 
 
 x0 = -3.32e-11;
 z0 = -200;
 alpha0 = 0.0471;
 u0 = 38.4;
 w0 = -8.17e-14;
 Vair0 = sqrt(u0^2 + w0^2);
 q0 = 7e-24;
 Thrust = 81.6;
 
 x0 = 0;
 z0 = -200;
%  pitchTheta0 = -0.00125;
 u0 = 23.4;
 w0 = 1.74;
 Vair0 = sqrt(u0^2 + w0^2);
 alpha0 = atan2(w0,u0);
 q0 = 0;
 Thrust = 39.9;
 
  x0 = 0;
 z0 = -200;
%  pitchTheta0 = -0.00125;
 u0 = 23.4;
 w0 = 1.74;
 Vair0 = sqrt(u0^2 + w0^2);
 alpha0 = 0.0521;
 alpha0 = 0.0471
 q0 = 0;
 Thrust = 39.9;
